LTspice 24.1.7 for Windows
Circuit: C:\Users\PROBOOK\Desktop\Universidad\sexto semestre\Teoria Control\Practicas\P9\actividadclase.net
Start Time: Mon Jun 16 19:15:49 2025
solver = Normal
Maximum thread count: 12
tnom = 27
temp = 27
method = trap
Direct Newton iteration for .op point succeeded.
Total elapsed time: 0.075 seconds.

Files loaded:
C:\Users\PROBOOK\Desktop\Universidad\sexto semestre\Teoria Control\Practicas\P9\actividadclase.net
C:\Users\PROBOOK\AppData\Local\LTspice\lib\sub\UniversalOpAmp2.lib

