LTspice 24.1.7 for Windows
Circuit: C:\Users\PROBOOK\Desktop\Universidad\sexto semestre\Teoria Control\Practicas\P9\pasaalto.net
Start Time: Mon Jun 16 19:17:46 2025
solver = Normal
Maximum thread count: 12
tnom = 27
temp = 27
method = trap
.OP point found by inspection.
Total elapsed time: 0.033 seconds.

Files loaded:
C:\Users\PROBOOK\Desktop\Universidad\sexto semestre\Teoria Control\Practicas\P9\pasaalto.net

