LTspice 24.1.7 for Windows
Circuit: C:\Users\PROBOOK\Desktop\Universidad\sexto semestre\Teoria Control\Practicas\P3\reto.net
Start Time: Sat Apr 26 11:11:21 2025
solver = Normal
Maximum thread count: 12
tnom = 27
temp = 27
method = trap
C:\Users\PROBOOK\Desktop\Universidad\sexto semestre\Teoria Control\Practicas\P3\reto.net(3): WARNING: Specified period is not longer than the sum of Trise, Tfall, and Ton. Increasing period to 1.

V1 N004 0 PULSE(0 12 0 0 0 1 0 0)
^^^^^^^^^^^^^^^^^^^^^^^^^^^^^^^^^
C:\Users\PROBOOK\Desktop\Universidad\sexto semestre\Teoria Control\Practicas\P3\reto.net(3): Limiting rise time to 1.9984e-16.

V1 N004 0 PULSE(0 12 0 0 0 1 0 0)
^^^^^^^^^^^^^^^^^^^^^^^^^^^^^^^^^
C:\Users\PROBOOK\Desktop\Universidad\sexto semestre\Teoria Control\Practicas\P3\reto.net(3): Limiting fall time to 1.9984e-16.

V1 N004 0 PULSE(0 12 0 0 0 1 0 0)
^^^^^^^^^^^^^^^^^^^^^^^^^^^^^^^^^
C:\Users\PROBOOK\Desktop\Universidad\sexto semestre\Teoria Control\Practicas\P3\reto.net(14): WARNING: Specified period is not longer than the sum of Trise, Tfall, and Ton. Increasing period to 1.

V5 N001 0 PULSE(0 12 0 0 0 1 0 0)
^^^^^^^^^^^^^^^^^^^^^^^^^^^^^^^^^
C:\Users\PROBOOK\Desktop\Universidad\sexto semestre\Teoria Control\Practicas\P3\reto.net(14): Limiting rise time to 1.9984e-16.

V5 N001 0 PULSE(0 12 0 0 0 1 0 0)
^^^^^^^^^^^^^^^^^^^^^^^^^^^^^^^^^
C:\Users\PROBOOK\Desktop\Universidad\sexto semestre\Teoria Control\Practicas\P3\reto.net(14): Limiting fall time to 1.9984e-16.

V5 N001 0 PULSE(0 12 0 0 0 1 0 0)
^^^^^^^^^^^^^^^^^^^^^^^^^^^^^^^^^
Direct Newton iteration failed to find .op point.  (Use ".option noopiter" to skip.)
Starting Gmin stepping
Gmin = 10
Gmin = 1.07374
Gmin = 0.115292
Gmin = 0.0123794
Gmin = 0.00132923
Gmin = 0.000142725
Gmin = 1.5325e-05
Gmin = 1.6455e-06
Gmin = 1.76685e-07
Gmin = 1.89714e-08
Gmin = 2.03704e-09
Gmin = 2.18725e-10
Gmin = 2.34854e-11
Gmin = 2.52173e-12
Gmin = 2.70769e-13
Gmin = 0
Gmin stepping succeeded in finding the operating point.

Total elapsed time: 1.768 seconds.

Files loaded:
C:\Users\PROBOOK\Desktop\Universidad\sexto semestre\Teoria Control\Practicas\P3\reto.net
C:\Users\PROBOOK\AppData\Local\LTspice\lib\sub\Contrib\Toshiba\BJT\TMBT3904_enc.lib
C:\Users\PROBOOK\AppData\Local\LTspice\lib\sub\UniversalOpAmp2.lib

